tools/iso_ne_250bus_case_related/raw_sources/tamu_ne_250bus/matpower/BaseCase.m
% Case saved by PowerWorld Simulator, version 19, build date May 26, 2016
function mpc = MasterCase
mpc.version = '2';
mpc.baseMVA =  100.00;

%% bus data 
mpc.bus = [
      1 2      0.00     0.00      0.00     0.00    1 1.0510128    -0.65728  345.00   1   1.100   0.980    26.33     0.00 0  0
      2 1     71.82    20.23      0.00     0.00    1 1.0464679    -8.73615  345.00   1   1.060   0.920    26.32     0.40 0  0
      3 2      0.00     0.00      0.00     0.00    1 1.0200000    -1.97240  138.00   1   1.100   0.980    26.43     0.00 0  0
      4 1     53.55    13.18      0.00     0.00    1 1.0272511    -8.07210  138.00   1   1.060   0.920    30.29     0.05 0  0
      5 1     58.09    21.02      0.00     0.00    1 1.0155988    -5.30173  230.00   1   1.060   0.920    30.44     0.03 0  0
      6 1     52.80    16.91      0.00     0.00    1 1.0173712    -3.56510  138.00   1   1.060   0.920    30.79     0.03 0  0
      7 2     85.05    33.00      0.00     0.00    1 1.0200000    -3.28104  138.00   1   1.100   0.980    30.44     0.00 0  0
      8 2     75.26    22.21      0.00     0.00    1 1.0200000    -2.32582  230.00   1   1.100   0.980    30.42     0.00 0  0
      9 1      0.00     0.00      0.00     0.00    1 1.0343660    -3.40503  345.00   1   1.060   0.920    30.42     0.00 0  0
     10 3     54.46    14.45      0.00     0.00    1 1.0200000     0.00000  138.00   1   1.100   0.980    30.92     0.00 0  0
     11 1      0.00     0.00      0.00     0.00    1 1.0197567    -0.63758  138.00   1   1.060   0.920    30.92     0.01 0  0
     12 1      1.63     0.49      0.00     0.00    1 1.0200546    -1.08568  138.00   1   1.060   0.920    30.92     0.02 0  0
     13 1      0.00     0.00      0.00     0.00    1 1.0217904    -2.21313  345.00   1   1.060   0.920    30.93     0.04 0  0
     14 1     73.19    21.41      0.00     0.00    1 1.0231534    -6.15031  230.00   1   1.060   0.920    30.93     0.13 0  0
     15 1     90.47    20.80      0.00     0.00    1 1.0173678    -7.86681  230.00   1   1.060   0.920    30.84     0.12 0  0
     16 1    109.54    25.45      0.00     0.00    1 1.0197366   -11.60711  138.00   1   1.060   0.920    30.88     0.12 0  0
     17 1     54.06    15.81      0.00     0.00    1 1.0119797   -12.55435  138.00   1   1.060   0.920    30.22     0.16 0  0
     18 1     63.09    16.03      0.00     0.00    1 1.0074155    -9.66478  138.00   1   1.060   0.920    28.19     0.70 0  0
     19 1     65.98    18.96      0.00     0.00    1 1.0205732   -10.11771  138.00   1   1.060   0.920    31.74     0.19 0  0
     20 1     63.52    18.62      0.00     0.00    1 1.0147304    -6.18912   69.00   1   1.060   0.920    31.74     0.09 0  0
     21 1     94.54    23.95      0.00     0.00    1 1.0187732   -13.36310  138.00   1   1.060   0.920    31.95     0.43 0  0
     22 1     83.69    25.21      0.00     0.00    1 1.0215099    -7.17485  230.00   1   1.060   0.920    29.37    -0.09 0  0
     23 1     61.09    16.85      0.00     0.00    1 1.0179429    -6.44317  230.00   1   1.060   0.920    28.63     0.03 0  0
     24 2     71.36    23.88      0.00     0.00    1 1.0200000    -7.90286  230.00   1   1.100   0.980    30.88     0.13 0  0
     25 1     49.63    11.67      0.00     0.00    1 1.0264220    -8.60506  230.00   1   1.060   0.920    53.91    -1.88 0  0
     26 2     60.12    16.05      0.00     0.00    1 1.0289473   -15.45019  345.00   1   1.100   0.980    28.79     0.00 0  0
     27 1     58.32    15.71      0.00     0.00    1 1.0268423   -15.88563  230.00   1   1.060   0.920    30.04    -0.00 0  0
     28 2    100.56    27.12      0.00     0.00    1 1.0200000    -8.38682  138.00   1   1.100   0.980    30.15     0.00 0  0
     29 1     59.75    15.74      0.00     0.00    1 1.0204548    -3.58245  138.00   1   1.060   0.920    30.09     0.00 0  0
     30 2      0.00     0.00      0.00     0.00    1 1.0322942    -7.77645   14.00   1   1.100   0.980    26.31     0.00 0  0
     31 2      0.00     0.00      0.00     0.00    1 1.0200000     0.63585   14.00   1   1.100   0.980    30.79     0.00 0  0
     32 2      0.00     0.00      0.00     0.00    1 1.0200000     2.86048   14.00   1   1.100   0.980    30.92     0.00 0  0
     33 2     88.35    22.67      0.00     0.00    1 1.0200000    -8.83160   14.00   1   1.100   0.980    31.71     0.17 0  0
     34 2     50.90    15.09      0.00     0.00    1 1.0200000    -2.01973   14.00   1   1.100   0.980    31.73     0.00 0  0
     35 2      0.00     0.00      0.00     0.00    1 1.0200000    -3.02871   14.00   1   1.100   0.980    29.38     0.00 0  0
     36 2      0.00     0.00      0.00     0.00    1 1.0200000    -3.08953   14.00   1   1.100   0.980    28.63     0.00 0  0
     37 2      0.00     0.00      0.00     0.00    1 1.0200000    -5.85837   14.00   1   1.100   0.980    53.97     0.00 0  0
     38 2      0.00     0.00      0.00     0.00    1 1.0200000    -0.72998   14.00   1   1.100   0.980    30.10     0.00 0  0
     39 1     56.00    16.57      0.00     0.00    1 1.0399795   -13.63423  345.00   1   1.060   0.920    27.71     0.35 0  0
     40 1     56.96    18.44      0.00     0.00    1 1.0265708   -16.34742  345.00   1   1.060   0.920    28.57     0.07 0  0
     41 1     75.27    19.30      0.00     0.00    1 1.0299241   -15.72979  345.00   1   1.060   0.920    29.99    -0.02 0  0
     42 1     83.93    23.75      0.00     0.00    1 1.0384276   -16.32705  345.00   1   1.060   0.920    29.13    -0.02 0  0
     43 1     75.27    22.18      0.00     0.00    1 1.0299810   -15.64470  345.00   1   1.060   0.920    28.58     0.07 0  0
     44 1     49.84    13.78      0.00     0.00    1 1.0193172    -4.02908  230.00   1   1.060   0.920    30.40     0.02 0  0
     45 1     75.75    19.22      0.00     0.00    1 1.0195984    -3.11931  345.00   1   1.060   0.920    30.38     0.00 0  0
     46 1     67.65    18.95      0.00     0.00    1 1.0097840    -7.33555  138.00   1   1.060   0.920    30.44     0.03 0  0
     47 1     59.76    17.11      0.00     0.00    1 1.0041719   -10.35253  138.00   1   1.060   0.920    30.43     0.04 0  0
     48 1     73.59    22.51      0.00     0.00    1 1.0202798    -8.37746  345.00   1   1.060   0.920    30.23     0.03 0  0
     49 2     44.62    14.82      0.00     0.00    1 1.0200000    -3.46992  138.00   1   1.100   0.980    30.39     0.00 0  0
     50 1     71.33    18.93      0.00    30.00    1 1.0207669    -6.70636  138.00   1   1.060   0.920    30.36     0.00 0  0
     51 1     58.06    19.48      0.00     0.00    1 1.0181196    -8.25938  138.00   1   1.060   0.920    30.42     0.01 0  0
     52 2     77.01    21.99      0.00     0.00    1 1.0200000    -2.30197  345.00   1   1.100   0.980    30.38     0.00 0  0
     53 1    117.15    29.09      0.00     0.00    1 1.0135346    -8.17286  138.00   1   1.060   0.920    30.44     0.02 0  0
     54 2     46.48    18.26      0.00     0.00    1 1.0200000    -1.87355  230.00   1   1.100   0.980    30.42     0.00 0  0
     55 1     72.91    19.22      0.00     0.00    1 1.0186370    -4.94047  230.00   1   1.060   0.920    30.43     0.04 0  0
     56 2     83.35    23.53      0.00     0.00    1 1.0200000    -6.00634  345.00   1   1.100   0.980    30.84     0.08 0  0
     57 1     40.46    12.90      0.00     0.00    1 1.0119245    -9.75666  138.00   1   1.060   0.920    30.51     0.03 0  0
     58 1     95.16    32.03      0.00     0.00    1 1.0135279    -6.55616  345.00   1   1.060   0.920    30.92     0.12 0  0
     59 1     56.19    20.11      0.00     0.00    1 1.0198422    -7.93243  345.00   1   1.060   0.920    30.84     0.11 0  0
     60 1     64.89    20.06      0.00     0.00    1 1.0168743   -10.07883  138.00   1   1.060   0.920    30.57     0.01 0  0
     61 1     78.77    24.81      0.00     0.00    1 1.0186755    -9.19535  230.00   1   1.060   0.920    30.85     0.15 0  0
     62 1     73.57    21.53      0.00     0.00    1 1.0097254    -7.15007  345.00   1   1.060   0.920    30.92     0.12 0  0
     63 1     54.73    17.23      0.00    48.00    1 1.0245143   -10.23766  138.00   1   1.060   0.920    30.45     0.05 0  0
     64 1    123.93    34.10      0.00    72.00    1 1.0261274    -8.86471  138.00   1   1.060   0.920    30.73     0.02 0  0
     65 1     46.25    14.26      0.00     0.00    1 1.0181334    -5.55310  138.00   1   1.060   0.920    30.38     0.00 0  0
     66 1     54.21    15.69      0.00     0.00    1 1.0142814    -6.46888  345.00   1   1.060   0.920    30.95     0.15 0  0
     67 1     66.47    19.00      0.00    30.00    1 1.0188802    -8.30895  138.00   1   1.060   0.920    30.41     0.01 0  0
     68 1     81.25    22.17      0.00     0.00    1 1.0176390    -7.31515  138.00   1   1.060   0.920    30.41     0.01 0  0
     69 2     42.40    14.46      0.00     0.00    1 1.0200000    -2.08047  345.00   1   1.100   0.980    30.93     0.00 0  0
     70 1     62.72    20.91      0.00     0.00    1 1.0109265    -2.78382  138.00   1   1.060   0.920    30.86    -0.00 0  0
     71 1     47.52    16.45      0.00     0.00    1 1.0162629    -6.13204  345.00   1   1.060   0.920    30.98     0.18 0  0
     72 2     41.63    14.60      0.00     0.00    1 1.0200000    -8.21747  138.00   1   1.100   0.980    30.42     0.01 0  0
     73 1     51.71    17.21      0.00     0.00    1 1.0184249    -8.32707  138.00   1   1.060   0.920    30.43     0.01 0  0
     74 1     56.78    15.20      0.00     0.00    1 1.0266035    -6.52799  345.00   1   1.060   0.920    30.27     0.03 0  0
     75 1     61.19    19.48      0.00    48.00    1 1.0294588    -8.57584  138.00   1   1.060   0.920    30.32     0.04 0  0
     76 2     86.17    18.77      0.00     0.00    1 1.0200000    -5.50427  345.00   1   1.100   0.980    31.00     0.21 0  0
     77 1     61.86    16.68      0.00    10.00    1 1.0127117    -9.86640  138.00   1   1.060   0.920    30.03    -0.00 0  0
     78 2     77.15    20.24      0.00     0.00    1 1.0394085   -15.68930  345.00   1   1.100   0.980    29.58     0.00 0  0
     79 1    102.70    27.11      0.00     0.00    1 1.0669820   -19.52986  345.00   1   1.060   0.920    29.66    -0.01 0  0
     80 2     83.34    19.69      0.00     0.00    1 1.0200000   -13.53746  345.00   1   1.100   0.980    29.84     0.00 0  0
     81 1     89.49    20.75      0.00     0.00    1 1.0217515   -13.67929  345.00   1   1.060   0.920    29.86     0.00 0  0
     82 2     59.67    17.64      0.00     0.00    1 1.0200000   -11.11265  345.00   1   1.100   0.980    29.92     0.00 0  0
     83 1     62.99    19.94      0.00     0.00    1 1.0283663   -10.42605  345.00   1   1.060   0.920    29.96    -0.00 0  0
     84 2     47.17    12.90      0.00     0.00    1 1.0200000    -6.97617  138.00   1   1.100   0.980    30.01     0.00 0  0
     85 1     53.47    16.06      0.00     0.00    1 1.0234535   -11.28573  230.00   1   1.060   0.920    30.17     0.02 0  0
     86 1     86.57    23.78      0.00     0.00    1 1.0176893   -11.55892  138.00   1   1.060   0.920    30.18     0.01 0  0
     87 1     97.32    27.32      0.00     0.00    1 1.0649341   -18.62707  345.00   1   1.060   0.920    29.74    -0.02 0  0
     88 1     75.42    23.93      0.00     0.00    1 1.0171671    -9.38498  138.00   1   1.060   0.920    30.15     0.00 0  0
     89 1     57.54    17.45      0.00     0.00    1 0.9855512   -13.01022  138.00   1   1.060   0.920    29.99    -0.02 0  0
     90 1     49.32    18.01      0.00     0.00    1 1.0112874    -6.94025  230.00   1   1.060   0.920    28.59     0.02 0  0
     91 1     61.82    17.14      0.00     0.00    1 1.0028657    -8.24232  230.00   1   1.060   0.920    28.54    -0.00 0  0
     92 1     57.59    16.99      0.00     0.00    1 1.0223538    -9.64391  345.00   1   1.060   0.920    31.96     0.36 0  0
     93 1     65.65    17.37      0.00    10.00    1 1.0263707    -9.85860  345.00   1   1.060   0.920    31.84     0.31 0  0
     94 1     82.89    24.24      0.00     0.00    1 1.0208519   -10.96476  138.00   1   1.060   0.920    31.63     0.09 0  0
     95 1     74.28    20.71      0.00    48.00    1 1.0283939   -11.85293  138.00   1   1.060   0.920    31.65     0.20 0  0
     96 1     86.40    21.77      0.00    48.00    1 1.0293228   -11.78788  138.00   1   1.060   0.920    31.59     0.26 0  0
     97 1     85.24    22.88      0.00     0.00    1 1.0245276   -10.15556  345.00   1   1.060   0.920    31.44     0.26 0  0
     98 1     88.10    23.75      0.00     0.00    1 1.0196677    -9.95862  345.00   1   1.060   0.920    31.26     0.31 0  0
     99 1     84.53    20.60      0.00     0.00    1 1.0259395   -10.86219  345.00   1   1.060   0.920    31.70     0.23 0  0
    100 1     63.97    20.23      0.00    30.00    1 1.0176809    -7.33866  138.00   1   1.060   0.920    31.30     0.01 0  0
    101 1     60.62    18.88      0.00    30.00    1 1.0269551   -10.13148  345.00   1   1.060   0.920    31.85     0.32 0  0
    102 1     38.51    13.85      0.00     0.00    1 1.0209289   -11.70452  138.00   1   1.060   0.920    31.67     0.15 0  0
    103 2     98.93    24.60      0.00     0.00    1 1.0200000    -8.73857  138.00   1   1.100   0.980    31.63     0.00 0  0
    104 1     70.77    18.08      0.00     0.00    1 1.0226974   -12.40824  138.00   1   1.060   0.920    31.78     0.22 0  0
    105 1     51.58    14.42      0.00    10.00    1 1.0224733   -11.22772  138.00   1   1.060   0.920    31.76     0.20 0  0
    106 1     51.31    17.89      0.00     0.00    1 1.0187946   -12.71309  138.00   1   1.060   0.920    31.83     0.23 0  0
    107 1     61.35    16.41      0.00     0.00    1 1.0190098   -12.46420  138.00   1   1.060   0.920    31.76     0.24 0  0
    108 1    104.85    25.56      0.00     0.00    1 1.0236852   -12.77125  230.00   1   1.060   0.920    31.81     0.29 0  0
    109 1     76.07    24.03      0.00    20.00    1 1.0198929   -13.02992  138.00   1   1.060   0.920    31.94     0.15 0  0
    110 1     39.58    14.42      0.00    10.00    1 1.0176815   -10.62488  138.00   1   1.060   0.920    31.76     0.19 0  0
    111 1     73.72    20.65      0.00    10.00    1 1.0258653   -11.21264  345.00   1   1.060   0.920    31.71     0.23 0  0
    112 1    101.34    26.20      0.00     0.00    1 1.0245063   -14.50486  138.00   1   1.060   0.920    31.93     0.43 0  0
    113 1     38.19    13.00      0.00     0.00    1 1.0229293   -15.09935  138.00   1   1.060   0.920    31.97     0.44 0  0
    114 1     40.24    13.54      0.00    30.00    1 1.0252778   -11.90530  138.00   1   1.060   0.920    31.72     0.18 0  0
    115 1     45.83    15.23      0.00    10.00    1 1.0244925    -9.31904  345.00   1   1.060   0.920    31.95     0.35 0  0
    116 1     90.98    22.63      0.00     0.00    1 1.0105013   -11.28523  230.00   1   1.060   0.920    33.48    -0.24 0  0
    117 1     67.80    17.54      0.00     0.00    1 1.0184341   -11.81296  138.00   1   1.060   0.920    31.08     0.21 0  0
    118 1     39.46    15.21      0.00    20.00    1 1.0241894   -11.66320  138.00   1   1.060   0.920    31.79     0.23 0  0
    119 1     86.06    23.41      0.00    20.00    1 1.0229856   -12.30705  138.00   1   1.060   0.920    31.80     0.24 0  0
    120 2     51.56    13.76      0.00     0.00    1 1.0200000   -10.81605  230.00   1   1.100   0.980    32.34     0.12 0  0
    121 1     63.65    16.30      0.00     0.00    1 1.0167935   -11.17078  230.00   1   1.060   0.920    32.35     0.13 0  0
    122 1     51.65    15.49      0.00    20.00    1 1.0183203   -13.08088  138.00   1   1.060   0.920    31.42     0.26 0  0
    123 1     77.84    22.49      0.00     0.00    1 1.0110538   -10.91845  230.00   1   1.060   0.920    27.73    -0.16 0  0
    124 1     78.98    20.59      0.00     0.00    1 1.0138662   -13.73852  230.00   1   1.060   0.920    32.96     0.45 0  0
    125 1     82.52    22.56      0.00     0.00    1 1.0199602   -13.72303  138.00   1   1.060   0.920    31.86     0.53 0  0
    126 1     67.95    19.89      0.00    20.00    1 1.0212000   -13.07220  230.00   1   1.060   0.920    32.14     0.26 0  0
    127 1     78.96    18.82      0.00    40.00    1 1.0196376   -13.44681  230.00   1   1.060   0.920    32.15     0.36 0  0
    128 2     86.15    19.20      0.00     0.00    1 1.0200000   -10.99865  138.00   1   1.100   0.980    31.07     0.00 0  0
    129 1     63.45    17.17      0.00     0.00    1 1.0123007   -14.19272  138.00   1   1.060   0.920    31.95     0.48 0  0
    130 2     69.23    20.07      0.00     0.00    1 1.0200000   -11.80356  138.00   1   1.100   0.980    31.57     0.22 0  0
    131 1     96.50    22.08      0.00     0.00    1 1.0214313   -14.46077  138.00   1   1.060   0.920    31.93     0.48 0  0
    132 1     88.89    18.78      0.00     0.00    1 1.0228601   -12.01720  230.00   1   1.060   0.920    33.65     0.76 0  0
    133 1     55.51    15.54      0.00     0.00    1 1.0231317   -11.22251  230.00   1   1.060   0.920    41.77    -1.74 0  0
    134 1     66.47    15.53      0.00     0.00    1 1.0214686   -12.48371  230.00   1   1.060   0.920    33.17     0.68 0  0
    135 1     47.66    16.27      0.00     0.00    1 1.0200449   -11.41296  345.00   1   1.060   0.920    31.50     0.46 0  0
    136 1     59.45    16.69      0.00    48.00    1 1.0247165   -12.08429  138.00   1   1.060   0.920    31.77     0.21 0  0
    137 1     46.86    17.55      0.00     0.00    1 1.0184535   -10.90454  345.00   1   1.060   0.920    31.40     0.40 0  0
    138 1     84.09    21.25      0.00    20.00    1 1.0267990   -11.07495  345.00   1   1.060   0.920    31.72     0.24 0  0
    139 1     71.67    19.49      0.00     0.00    1 1.0422177    -9.59445  345.00   1   1.060   0.920    26.31     0.40 0  0
    140 1     96.71    23.92      0.00     0.00    1 1.0168373    -6.27598  138.00   1   1.060   0.920    31.30     0.01 0  0
    141 2     86.78    22.31      0.00     0.00    1 1.0200000    -3.75765  345.00   1   1.100   0.980    31.37     0.00 0  0
    142 1     56.05    16.15      0.00     0.00    1 1.0161447   -13.37845  230.00   1   1.060   0.920    33.23     0.52 0  0
    143 2     82.40    22.49      0.00     0.00    1 1.0200000    -9.80478  230.00   1   1.100   0.980    30.85     0.15 0  0
    144 1     98.86    22.23      0.00     0.00    1 1.0141796   -10.78795  230.00   1   1.060   0.920    30.86     0.15 0  0
    145 1     75.65    19.81      0.00    10.00    1 1.0077931   -13.19010  138.00   1   1.060   0.920    30.73     0.00 0  0
    146 2     80.83    20.90      0.00     0.00    1 1.0200000   -10.46516  345.00   1   1.100   0.980    31.36     0.37 0  0
    147 1     48.57    13.60      0.00    30.00    1 1.0280521   -12.73949  138.00   1   1.060   0.920    31.84     0.29 0  0
    148 1     57.78    15.99      0.00    10.00    1 1.0262076    -9.67217  345.00   1   1.060   0.920    31.87     0.32 0  0
    149 2    101.42    22.54      0.00     0.00    1 1.0200000   -12.16412  138.00   1   1.100   0.980    30.81     0.00 0  0
    150 1     71.51    18.37      0.00     0.00    1 1.0159086    -9.32930  345.00   1   1.060   0.920    30.23     0.03 0  0
    151 1     59.51    18.05      0.00     0.00    1 1.0196734   -10.76372  345.00   1   1.060   0.920    31.40     0.40 0  0
    152 1     47.62    12.65      0.00    60.00    1 1.0274608   -14.61433  138.00   1   1.060   0.920    31.93     0.42 0  0
    153 1     55.41    17.93      0.00     0.00    1 1.0206057   -11.63616  345.00   1   1.060   0.920    31.55     0.48 0  0
    154 1     69.11    20.25      0.00     0.00    1 1.0201665   -13.80101  230.00   1   1.060   0.920    30.32     0.01 0  0
    155 1     63.02    20.40      0.00     0.00    1 1.0057886   -14.21726  138.00   1   1.060   0.920    30.34     0.01 0  0
    156 1     64.59    19.20      0.00     0.00    1 1.0242912   -10.22193  345.00   1   1.060   0.920    30.32     0.02 0  0
    157 2     64.97    20.94      0.00     0.00    1 1.0200000    -9.72434  138.00   1   1.100   0.980    30.54     0.00 0  0
    158 1     64.55    16.35      0.00    20.00    1 1.0177746   -12.19121  138.00   1   1.060   0.920    30.58    -0.00 0  0
    159 1     68.35    18.93      0.00     0.00    1 1.0295978   -13.92456  345.00   1   1.060   0.920    30.22    -0.02 0  0
    160 1     81.75    24.03      0.00     0.00    1 1.0142985   -16.08693  230.00   1   1.060   0.920    30.15    -0.03 0  0
    161 1     42.27    12.72      0.00    20.00    1 1.0255814   -12.20108  138.00   1   1.060   0.920    30.52    -0.02 0  0
    162 2     61.40    18.40      0.00     0.00    1 1.0200000    -8.80856  345.00   1   1.100   0.980    30.45     0.00 0  0
    163 1     77.85    25.10      0.00     0.00    1 1.0208879   -11.61415  230.00   1   1.060   0.920    30.88     0.17 0  0
    164 1     57.57    19.53      0.00    20.00    1 1.0152734   -12.09742  138.00   1   1.060   0.920    30.84     0.16 0  0
    165 2     62.39    17.67      0.00     0.00    1 1.0200000    -7.73225  230.00   1   1.100   0.980    30.11     0.00 0  0
    166 2     58.41    17.02      0.00     0.00    1 1.0200000    -9.26878  138.00   1   1.100   0.980    30.59     0.00 0  0
    167 1     58.82    16.22      0.00     0.00    1 1.0437142   -14.91807  345.00   1   1.060   0.920    29.51    -0.03 0  0
    168 1     38.14    13.87      0.00    20.00    1 1.0242880    -9.65382  230.00   1   1.060   0.920    54.57    -1.63 0  0
    169 1     60.60    19.23      0.00    30.00    1 1.0211057   -11.63356  138.00   1   1.060   0.920    30.34     0.01 0  0
    170 1     69.77    22.04      0.00     0.00    1 1.0043910    -8.22004  138.00   1   1.060   0.920    31.16     0.05 0  0
    171 1     59.47    16.53      0.00    48.00    1 1.0145444    -8.25168  138.00   1   1.060   0.920    31.23     0.03 0  0
    172 1     70.28    20.94      0.00    10.00    1 1.0086312    -5.54141  138.00   1   1.060   0.920    31.00     0.04 0  0
    173 1     61.02    18.12      0.00    10.00    1 1.0070894    -5.34306  138.00   1   1.060   0.920    30.98     0.04 0  0
    174 1     75.70    22.07      0.00     0.00    1 1.0224010    -7.42509  345.00   1   1.060   0.920    31.04     0.18 0  0
    175 2     59.57    19.59      0.00     0.00    1 1.0200000    -6.41177  138.00   1   1.100   0.980    31.13     0.00 0  0
    176 2     74.74    23.16      0.00     0.00    1 1.0200000   -10.23361  345.00   1   1.100   0.980    31.35     0.36 0  0
    177 1    109.37    35.81      0.00     0.00    1 1.0154894    -8.52671  230.00   1   1.060   0.920    30.97     0.16 0  0
    178 1     55.53    15.65      0.00     0.00    1 1.0108490   -10.46713  138.00   1   1.060   0.920    31.14     0.21 0  0
    179 1      5.26     1.52      0.00     0.00    1 1.0102202   -10.51318  138.00   1   1.060   0.920    31.14     0.21 0  0
    180 1      7.92     2.25      0.00     0.00    1 1.0225063    -7.46503  345.00   1   1.060   0.920    31.04     0.18 0  0
    181 1      0.00     0.00      0.00     0.00    1 1.0418732    -4.80474  345.00   1   1.060   0.920    28.08     0.09 0  0
    182 1      0.00     0.00      0.00     0.00    1 1.0277750    -6.51271  345.00   1   1.060   0.920    30.25     0.03 0  0
    183 1      0.00     0.00      0.00     0.00    1 1.0239617    -4.52338  345.00   1   1.060   0.920    30.34     0.01 0  0
    184 1      0.00     0.00      0.00     0.00    1 1.0192759    -4.76493  230.00   1   1.060   0.920    30.78     0.04 0  0
    185 1      0.00     0.00      0.00     0.00    1 1.0207055    -5.30590  345.00   1   1.060   0.920    30.85     0.07 0  0
    186 1      0.00     0.00      0.00     0.00    1 1.0209955    -4.86203  345.00   1   1.060   0.920    30.41     0.01 0  0
    187 1      0.00     0.00      0.00     0.00    1 1.0241390    -3.32252  345.00   1   1.060   0.920    30.42     0.00 0  0
    188 1      0.00     0.00      0.00     0.00    1 1.0215495    -1.91827  345.00   1   1.060   0.920    30.93     0.03 0  0
    189 1      0.00     0.00      0.00     0.00    1 1.0215589    -2.22653  345.00   1   1.060   0.920    30.93     0.03 0  0
    190 1      0.00     0.00      0.00     0.00    1 1.0234227    -5.07674  345.00   1   1.060   0.920    30.93     0.13 0  0
    191 1      0.00     0.00      0.00     0.00    1 1.0219184    -7.46947  345.00   1   1.060   0.920    30.83     0.10 0  0
    192 1      0.00     0.00      0.00     0.00    1 1.0224722   -10.33125  230.00   1   1.060   0.920    30.97     0.23 0  0
    193 1      0.00     0.00      0.00     0.00    1 1.0274205    -9.75186  345.00   1   1.060   0.920    30.80     0.11 0  0
    194 1      0.00     0.00      0.00     0.00    1 1.0302136   -10.77352  345.00   1   1.060   0.920    30.63     0.08 0  0
    195 1      0.00     0.00      0.00    20.00    1 1.0292364   -11.90949  230.00   1   1.060   0.920    31.78     0.28 0  0
    196 1      0.00     0.00      0.00    20.00    1 1.0280697   -10.99796  345.00   1   1.060   0.920    31.73     0.24 0  0
    197 1      0.00     0.00      0.00    30.00    1 1.0282489   -12.38658  230.00   1   1.060   0.920    32.20     0.56 0  0
    198 1      0.00     0.00      0.00    20.00    1 1.0319867   -11.44252  345.00   1   1.060   0.920    31.94     0.37 0  0
    199 1      0.00     0.00      0.00     0.00    1 1.0262556    -8.90177  345.00   1   1.060   0.920    31.93     0.35 0  0
    200 1      0.00     0.00      0.00     0.00    1 1.0225483    -8.60690  345.00   1   1.060   0.920    31.12     0.20 0  0
...
];

%% generator data 
mpc.gen = [
      1    128.47   -103.00    103.00   -103.00  1.0200    100.00 1    338.00      3.00     81.31   9999.90   -500.00   1500.00   -500.00   1500.00 0 0 0 0   0.0000 0 0 0 0
      3    260.74    -66.92    392.00   -209.00  1.0200    100.00 1    686.00    298.00    298.00    686.00   -209.00    392.00   -209.00    392.00 0 0 0 0   0.0000 0 0 0 0
      7    256.18     24.65    385.00   -205.00  1.0200    100.00 1    674.00    139.00    139.00    674.00   -205.00    385.00   -205.00    385.00 0 0 0 0   0.0000 0 0 0 0
      8    232.23    -11.34    349.00   -186.00  1.0200    100.00 1    611.00    189.00    189.00    611.00   -186.00    349.00   -186.00    349.00 0 0 0 0   0.0000 0 0 0 0
     10    934.54    -17.44   1298.00   -692.00  1.0200    100.00 1   2271.00   1406.00   1406.00   2271.00   -692.00   1298.00   -692.00   1298.00 0 0 0 0   0.0000 0 0 0 0
     24    205.63     29.07    309.00   -165.00  1.0200    100.00 1    541.00    288.00    288.00    541.00   -165.00    309.00   -165.00    309.00 0 0 0 0   0.0000 0 0 0 0
     26    114.03    -91.00    171.00    -91.00  1.0200    100.00 1    300.00    120.00    120.00    300.00    -91.00    171.00    -91.00    171.00 0 0 0 0   0.0000 0 0 0 0
     28    225.01     18.28    338.00   -180.00  1.0200    100.00 1    592.00    216.00    216.00    592.00   -180.00    338.00   -180.00    338.00 0 0 0 0   0.0000 0 0 0 0
     30     99.96    -80.00    150.00    -80.00  1.0200    100.00 1    263.00    125.00    125.00    263.00    -80.00    150.00    -80.00    150.00 0 0 0 0   0.0000 0 0 0 0
     31    304.07     21.88    457.00   -244.00  1.0200    100.00 1    800.00    241.00    241.00    800.00   -244.00    457.00   -244.00    457.00 0 0 0 0   0.0000 0 0 0 0
     32    259.60      6.48    390.00   -208.00  1.0200    100.00 1    683.00    163.00    163.00    683.00   -208.00    390.00   -208.00    390.00 0 0 0 0   0.0000 0 0 0 0
     33    252.38     12.32    379.00   -202.00  1.0200    100.00 1    664.00    379.00    379.00    664.00   -202.00    379.00   -202.00    379.00 0 0 0 0   0.0000 0 0 0 0
     34    470.17     39.20    707.00   -377.00  1.0200    100.00 1   1237.00    295.00    295.00   1237.00   -377.00    707.00   -377.00    707.00 0 0 0 0   0.0000 0 0 0 0
     35    526.80      8.30    792.00   -422.00  1.0200    100.00 1   1386.00    924.00    924.00   1386.00   -422.00    792.00   -422.00    792.00 0 0 0 0   0.0000 0 0 0 0
     36    223.49     10.14    336.00   -179.00  1.0200    100.00 1    588.00    140.00    140.00    588.00   -179.00    336.00   -179.00    336.00 0 0 0 0   0.0000 0 0 0 0
     37    215.51    -28.62    324.00   -173.00  1.0200    100.00 1    567.00    100.00    100.00    567.00   -173.00    324.00   -173.00    324.00 0 0 0 0   0.0000 0 0 0 0
     38    331.44    -11.70    498.00   -266.00  1.0200    100.00 1    872.00    208.00    208.00    872.00   -266.00    498.00   -266.00    498.00 0 0 0 0   0.0000 0 0 0 0
     49    230.71      8.20    347.00   -185.00  1.0200    100.00 1    607.00    320.00    320.00    607.00   -185.00    347.00   -185.00    347.00 0 0 0 0   0.0000 0 0 0 0
     52    624.11    -52.46    938.00   -500.00  1.0200    100.00 1   1642.00    162.00    162.00   1642.00   -500.00    938.00   -500.00    938.00 0 0 0 0   0.0000 0 0 0 0
     54    207.53      7.91    312.00   -166.00  1.0200    100.00 1    546.00    208.00    208.00    546.00   -166.00    312.00   -166.00    312.00 0 0 0 0   0.0000 0 0 0 0
     56    276.71    -13.67    416.00   -222.00  1.0200    100.00 1    728.00    416.00    416.00    728.00   -222.00    416.00   -222.00    416.00 0 0 0 0   0.0000 0 0 0 0
     69    197.65    -11.04    297.00   -158.00  1.0200    100.00 1    520.00    149.00    149.00    520.00   -158.00    297.00   -158.00    297.00 0 0 0 0   0.0000 0 0 0 0
     72     99.96     72.07    150.00    -80.00  1.0200    100.00 1    263.00     85.00     85.00    263.00    -80.00    150.00    -80.00    150.00 0 0 0 0   0.0000 0 0 0 0
     76    335.24    -35.64    504.00   -269.00  1.0200    100.00 1    882.00    435.00    435.00    882.00   -269.00    504.00   -269.00    504.00 0 0 0 0   0.0000 0 0 0 0
     78    109.47    -88.00    165.00    -88.00  1.0200    100.00 1    288.00    130.00    130.00    288.00    -88.00    165.00    -88.00    165.00 0 0 0 0   0.0000 0 0 0 0
     80    219.69   -129.33    330.00   -176.00  1.0200    100.00 1    578.00    113.00    113.00    578.00   -176.00    330.00   -176.00    330.00 0 0 0 0   0.0000 0 0 0 0
     82    118.97    -57.14    179.00    -95.00  1.0200    100.00 1    313.00    176.00    176.00    313.00    -95.00    179.00    -95.00    179.00 0 0 0 0   0.0000 0 0 0 0
     84    337.52    -68.54    508.00   -271.00  1.0200    100.00 1    888.00    169.00    169.00    888.00   -271.00    508.00   -271.00    508.00 0 0 0 0   0.0000 0 0 0 0
    103    348.16     -2.78    523.00   -279.00  1.0200    100.00 1    916.00    208.00    208.00    916.00   -279.00    523.00   -279.00    523.00 0 0 0 0   0.0000 0 0 0 0
    120    321.18     14.18    483.00   -258.00  1.0200    100.00 1    845.00    161.00    161.00    845.00   -258.00    483.00   -258.00    483.00 0 0 0 0   0.0000 0 0 0 0
    128    143.67     15.48    216.00   -115.00  1.0200    100.00 1    378.00    180.00    180.00    378.00   -115.00    216.00   -115.00    216.00 0 0 0 0   0.0000 0 0 0 0
    130    101.48     21.17    153.00    -81.00  1.0200    100.00 1    267.00    115.00    115.00    267.00    -81.00    153.00    -81.00    153.00 0 0 0 0   0.0000 0 0 0 0
    141    642.73    -23.74    967.00   -515.00  1.0200    100.00 1   1691.00    877.00    877.00   1691.00   -515.00    967.00   -515.00    967.00 0 0 0 0   0.0000 0 0 0 0
    143    115.17     58.34    173.00    -92.00  1.0200    100.00 1    303.00    155.00    155.00    303.00    -92.00    173.00    -92.00    173.00 0 0 0 0   0.0000 0 0 0 0
    146    230.71     41.10    347.00   -185.00  1.0200    100.00 1    607.00    300.00    300.00    607.00   -185.00    347.00   -185.00    347.00 0 0 0 0   0.0000 0 0 0 0
    149    104.14     31.49    157.00    -83.00  1.0200    100.00 1    274.00    186.00    186.00    274.00    -83.00    157.00    -83.00    157.00 0 0 0 0   0.0000 0 0 0 0
    157    198.03     -3.21    298.00   -159.00  1.0200    100.00 1    521.00    288.00    288.00    521.00   -159.00    298.00   -159.00    298.00 0 0 0 0   0.0000 0 0 0 0
    162    241.74    -49.78    363.00   -194.00  1.0200    100.00 1    636.00    230.00    230.00    636.00   -194.00    363.00   -194.00    363.00 0 0 0 0   0.0000 0 0 0 0
    165    495.64     -2.46    745.00   -397.00  1.0200    100.00 1   1304.00    782.00    782.00   1304.00   -397.00    745.00   -397.00    745.00 0 0 0 0   0.0000 0 0 0 0
    166    315.47    -22.42    474.00   -253.00  1.0200    100.00 1    830.00    277.00    277.00    830.00   -253.00    474.00   -253.00    474.00 0 0 0 0   0.0000 0 0 0 0
    175    237.94     -2.68    358.00   -191.00  1.0200    100.00 1    626.00    209.00    209.00    626.00   -191.00    358.00   -191.00    358.00 0 0 0 0   0.0000 0 0 0 0
    176    101.48     12.31    153.00    -81.00  1.0200    100.00 1    267.00     86.00     86.00    267.00    -81.00    153.00    -81.00    153.00 0 0 0 0   0.0000 0 0 0 0
];

%% generator cost data
mpc.gencost = [
2 0 0 4   0.0000    0.001   17.500   450.00
2 0 0 4   0.0000    0.001   24.757  1505.67
2 0 0 4   0.0000    0.002   24.400  3342.77
2 0 0 4   0.0000    0.005   30.562  1114.42
2 0 0 4   0.0000    0.001   25.697  6313.07
2 0 0 4   0.0000    0.002   27.100  1297.89
2 0 0 4   0.0000    0.005   27.249   783.88
2 0 0 4   0.0000    0.002   26.174  1372.76
2 0 0 4   0.0000    0.006   26.053   655.13
2 0 0 4   0.0000    0.002   29.298  3418.85
2 0 0 4   0.0000    0.002   29.135  1458.22
2 0 0 4   0.0000    0.001   23.899  4734.80
2 0 0 4   0.0000    0.004   29.960  3677.05
2 0 0 4   0.0000    0.001   26.605  6691.85
2 0 0 4   0.0000    0.002   26.400  3342.77
2 0 0 4   0.0000    0.004   52.785  7415.02
2 0 0 4   0.0000    0.003   27.114  3844.19
2 0 0 4   0.0000    0.002   25.878  1390.96
2 0 0 4   0.0000    0.003   21.871  2841.36
2 0 0 4   0.0000    0.002   26.558  1284.25
2 0 0 4   0.0000    0.001   24.540  1581.44
2 0 0 4   0.0000    0.002   25.780  3523.95
2 0 0 4   0.0000    0.003   22.330  2325.41
2 0 0 4   0.0000    0.001   25.323  1978.07
2 0 0 4   0.0000    0.005   26.473   732.25
2 0 0 4   0.0000    0.002   26.356  1347.98
2 0 0 4   0.0000    0.008   27.364   550.89
2 0 0 4   0.0000    0.004   31.864  3610.20
2 0 0 4   0.0000    0.001   25.117  2036.75
2 0 0 4   0.0000    0.004   32.314  3777.33
2 0 0 4   0.0000    0.004   26.167   947.57
2 0 0 4   0.0000    0.006   27.791   710.04
2 0 0 4   0.0000    0.003   27.697  4313.07
2 0 0 4   0.0000    0.005   26.616   773.70
2 0 0 4   0.0000    0.002   26.010  1398.04
2 0 0 4   0.0000    0.006   27.475   721.30
2 0 0 4   0.0000    0.006   32.756  1215.71
2 0 0 4   0.0000    0.002   25.916  1460.47
2 0 0 4   0.0000    0.001   26.918  6534.03
2 0 0 4   0.0000    0.001   25.325  1860.51
2 0 0 4   0.0000    0.002   25.962  1438.95
2 0 0 4   0.0000    0.006   27.924   713.43
];

%% branch data
mpc.branch = [
      1       2  0.005978  0.120624   1.98515    414.51    414.51    414.51 1.00000    0.000 1    0.00    0.00    128.47   -103.00   -127.57    -97.27 0 0 0 0
      2      30  0.000000  0.018100   0.00000   1000.00   1000.00   1000.00 1.00000    0.000 1    0.00    0.00    -99.96     82.78     99.96    -80.00 0 0 0 0
      2      39  0.008680  0.060198   0.52937    530.03    530.03    530.03 1.00000    0.000 1    0.00    0.00    153.75    -33.27   -151.87    -11.34 0 0 0 0
      2     139  0.003390  0.023178   0.20974    530.03    530.03    530.03 1.00000    0.000 1    0.00    0.00     71.84     -2.27    -71.67    -19.49 0 0 0 0
      2     181  0.007607  0.052755   0.46393    530.03    530.03    530.03 1.00000    0.000 1    0.00    0.00   -136.84      8.31    138.22    -49.32 0 0 0 0
      2     201  0.002742  0.018748   0.16965    530.03    530.03    530.03 1.00000    0.000 1    0.00    0.00     66.98     21.49    -66.84    -39.01 0 0 0 0
      3      18  0.003829  0.158129   0.09685    316.20    316.20    316.20 1.00000    0.000 1    0.00    0.00     87.27      6.81    -86.98     -4.98 0 0 0 0
      3     181  0.000638  0.030000   0.00000    400.00    400.00    400.00 1.00000    0.000 1    0.00    0.00    173.47    -73.73   -173.25     83.98 0 0 0 0
      4      75  0.016845  0.038117   0.00951    107.32    107.32    107.32 1.00000    0.000 1    0.00    0.00     18.25    -14.41    -18.16     13.59 0 0 0 0
      4     182  0.000889  0.040000   0.00000    300.00    300.00    300.00 1.00000    0.000 1    0.00    0.00    -71.80      1.23     71.84      0.73 0 0 0 0
      5       8  0.002959  0.039331   0.08406    578.83    578.83    578.83 1.00000    0.000 1    0.00    0.00   -136.55     -1.87    137.09      0.28 0 0 0 0
      5     183  0.001261  0.046667   0.00000    150.00    150.00    150.00 1.00000    0.000 1    0.00    0.00    -30.74    -17.16     30.75     17.72 0 0 0 0
      5     184  0.045023  0.111012   0.17939    178.87    178.87    178.87 1.00000    0.000 1    0.00    0.00     -8.66     -9.06      8.69     -9.43 0 0 0 0
      5     207  0.001124  0.013276   0.03027    541.39    541.39    541.39 1.00000    0.000 1    0.00    0.00    117.86      7.08   -117.71     -8.40 0 0 0 0
      6       7  0.062002  0.145750   0.03365    107.32    107.32    107.32 1.00000    0.000 1    0.00    0.00     -3.65     -2.02      3.65     -1.46 0 0 0 0
      6      31  0.000000  0.025000   0.00000   1100.00   1100.00   1100.00 1.00000    0.000 1    0.00    0.00   -304.07      0.46    304.07     21.88 0 0 0 0
      6      70  0.033638  0.077688   0.01859    107.32    107.32    107.32 1.00000    0.000 1    0.00    0.00    -12.08     12.83     12.19    -14.49 0 0 0 0
      6     184  0.000297  0.014545   0.00000    550.00    550.00    550.00 1.00000    0.000 1    0.00    0.00    148.98    -14.80   -148.92     17.95 0 0 0 0
      6     185  0.000556  0.026667   0.00000    450.00    450.00    450.00 1.00000    0.000 1    0.00    0.00    118.02    -13.38   -117.94     17.02 0 0 0 0
      7     186  0.000336  0.017143   0.00000    700.00    700.00    700.00 1.00000    0.000 1    0.00    0.00    167.47     -6.89   -167.38     11.52 0 0 0 0
      8      54  0.000326  0.005080   0.01216    665.28    665.28    665.28 1.00000    0.000 1    0.00    0.00   -160.96     10.35    161.05    -10.34 0 0 0 0
      8     187  0.000196  0.010000   0.00000    700.00    700.00    700.00 1.00000    0.000 1    0.00    0.00    180.85    -44.18   -180.78     47.51 0 0 0 0
    187       9  0.006838  0.047422   0.41703    530.03    530.03    530.03 1.00000    0.000 1    0.00    0.00      0.03    -43.96      0.00      0.00 0 0 0 0
     10      11  0.000315  0.008557   0.00495    566.01    566.01    566.01 1.00000    0.000 1    0.00    0.00    135.21     -1.59   -135.16      2.58 0 0 0 0
     10      32  0.000000  0.020000   0.00000   1000.00   1000.00   1000.00 1.00000    0.000 1    0.00    0.00   -259.60      6.48    259.60      6.48 0 0 0 0
     10      70  0.005799  0.067267   0.02063    324.83    324.83    324.83 1.00000    0.000 1    0.00    0.00     75.23      8.01    -74.91     -6.42 0 0 0 0
     10     188  0.000073  0.003750   0.00000   3200.00   3200.00   3200.00 1.00000    0.000 1    0.00    0.00    929.23    -44.79   -928.62     75.98 0 0 0 0
     12      11  0.001279  0.043500   0.00000    100.00    100.00    100.00 1.00000    0.000 1    0.00    0.00    -18.66      1.32     18.67     -1.17 0 0 0 0
     11     173  0.016673  0.124076   0.03486    237.35    237.35    237.35 1.00000    0.000 1    0.00    0.00     68.44      2.19    -67.68     -0.16 0 0 0 0
     11     189  0.001500  0.060000   0.00000    200.00    200.00    200.00 1.00000    0.000 1    0.00    0.00     48.05     -3.60    -48.02      4.94 0 0 0 0
     12      13  0.003529  0.120000   0.00000    100.00    100.00    100.00 1.00000    0.000 1    0.00    0.00     17.04     -1.81    -17.03      2.15 0 0 0 0
    188      13  0.000109  0.001949   0.02003   1045.73   1045.73   1045.73 1.00000    0.000 1    0.00    0.00    274.04    -28.27   -273.96     27.60 0 0 0 0
     13     190  0.000846  0.017908   0.26779   1060.07   1060.07   1060.07 1.00000    0.000 1    0.00    0.00    290.99    -29.75   -290.30     16.31 0 0 0 0
     14      15  0.036111  0.089040   0.14388    178.87    178.87    178.87 1.00000    0.000 1    0.00    0.00     32.57    -13.57    -32.19     -0.48 0 0 0 0
     14     177  0.018818  0.067761   0.11459    229.46    229.46    229.46 1.00000    0.000 1    0.00    0.00     62.35    -10.42    -61.65      1.05 0 0 0 0
     14     190  0.000233  0.011667   0.00000    600.00    600.00    600.00 1.00000    0.000 1    0.00    0.00   -168.11      2.58    168.18      0.57 0 0 0 0
     15      61  0.004135  0.027504   0.05200    353.36    353.36    353.36 1.00000    0.000 1    0.00    0.00     84.87    -19.27    -84.57     15.87 0 0 0 0
    184      15  0.003431  0.042042   0.08894    541.39    541.39    541.39 1.00000    0.000 1    0.00    0.00    133.25     -7.26   -132.67      5.22 0 0 0 0
     15     191  0.002059  0.070000   0.00000    100.00    100.00    100.00 1.00000    0.000 1    0.00    0.00    -10.48     -6.27     10.49      6.37 0 0 0 0
     16     149  0.014227  0.046950   0.01231    137.68    137.68    137.68 1.00000    0.000 1    0.00    0.00     19.60     -7.05    -19.54      5.96 0 0 0 0
     16     192  0.001000  0.040000   0.00000    200.00    200.00    200.00 1.00000    0.000 1    0.00    0.00    -58.16     -4.87     58.19      6.18 0 0 0 0
     16     193  0.001116  0.048000   0.00000    250.00    250.00    250.00 1.00000    0.000 1    0.00    0.00    -70.98    -13.53     71.03     15.94 0 0 0 0
     17      18  0.056699  0.194499   0.04709    137.68    137.68    137.68 1.00000    0.000 1    0.00    0.00    -23.54      7.49     23.90    -11.05 0 0 0 0
     17     145  0.046728  0.104525   0.02669    107.32    107.32    107.32 1.00000    0.000 1    0.00    0.00     10.56     -1.97    -10.50     -0.64 0 0 0 0
     17     194  0.002162  0.080000   0.00000    150.00    150.00    150.00 1.00000    0.000 1    0.00    0.00    -41.07    -21.33     41.12     23.00 0 0 0 0
     19      20  0.000426  0.020000   0.00000    400.00    400.00    400.00 1.00000    0.000 1    0.00    0.00   -353.71     49.51    354.23    -25.01 0 0 0 0
     19      33  0.000700  0.014200   0.00000   1000.00   1000.00   1000.00 1.00000    0.000 1    0.00    0.00   -163.85     14.04    164.03    -10.36 0 0 0 0
     19      96  0.055097  0.129519   0.02990    107.32    107.32    107.32 1.00000    0.000 1    0.00    0.00     17.66    -15.62    -17.39     13.11 0 0 0 0
     19     105  0.000528  0.012761   0.00724    522.03    522.03    522.03 1.00000    0.000 1    0.00    0.00    157.58    -20.56   -157.45     22.90 0 0 0 0
     19     110  0.005086  0.023707   0.00609    173.53    173.53    173.53 1.00000    0.000 1    0.00    0.00     39.66      3.79    -39.58     -4.06 0 0 0 0
     19     118  0.000642  0.013449   0.00755    474.70    474.70    474.70 1.00000    0.000 1    0.00    0.00    207.97    -34.93   -207.70     39.88 0 0 0 0
     19     175  0.056202  0.251624   0.07017    173.53    173.53    173.53 1.00000    0.000 1    0.00    0.00    -25.24      3.08     25.60     -8.74 0 0 0 0
     19     195  0.002353  0.080000   0.00000    100.00    100.00    100.00 1.00000    0.000 1    0.00    0.00     40.71    -11.61    -40.67     12.98 0 0 0 0
     19     196  0.003529  0.120000   0.00000    100.00    100.00    100.00 1.00000    0.000 1    0.00    0.00     13.24     -6.66    -13.23      6.91 0 0 0 0
     20      34  0.000900  0.018000   0.00000    600.00    600.00    600.00 1.00000    0.000 1    0.00    0.00   -417.75      6.40    419.27     24.12 0 0 0 0
     21     129  0.006980  0.035005   0.01005    187.39    187.39    187.39 1.00000    0.000 1    0.00    0.00     44.70      9.71    -44.56    -10.04 0 0 0 0
     21     130  0.007383  0.060698   0.01884    261.01    261.01    261.01 1.00000    0.000 1    0.00    0.00    -46.08      3.20     46.24     -3.91 0 0 0 0
     21     197  0.001441  0.053333   0.00000    150.00    150.00    150.00 1.00000    0.000 1    0.00    0.00    -33.93    -16.90     33.95     17.64 0 0 0 0
     21     198  0.001500  0.060000   0.00000    200.00    200.00    200.00 1.00000    0.000 1    0.00    0.00    -59.22    -19.97     59.28     22.23 0 0 0 0
     22      23  0.013985  0.034482   0.05572    178.87    178.87    178.87 1.00000    0.000 1    0.00    0.00    -29.30     19.79     29.49    -25.13 0 0 0 0
     22      35  0.000000  0.014300   0.00000   1950.00   1950.00   1950.00 1.00000    0.000 1    0.00    0.00   -526.80     29.86    526.80      8.30 0 0 0 0
     22     199  0.000131  0.006667   0.00000   1050.00   1050.00   1050.00 1.00000    0.000 1    0.00    0.00    472.41    -74.86   -472.13     89.47 0 0 0 0
     23      24  0.043009  0.106048   0.17137    178.87    178.87    178.87 1.00000    0.000 1    0.00    0.00     20.84    -18.99    -20.62      1.74 0 0 0 0
     23      36  0.000500  0.027200   0.00000   1000.00   1000.00   1000.00 1.00000    0.000 1    0.00    0.00   -223.25      2.94    223.49     10.14 0 0 0 0
     23      90  0.006901  0.020365   0.03648    206.75    206.75    206.75 1.00000    0.000 1    0.00    0.00     49.51     14.79    -49.32    -18.01 0 0 0 0
     23      91  0.012793  0.054395   0.09557    262.53    262.53    262.53 1.00000    0.000 1    0.00    0.00     62.33      9.53    -61.82    -17.14 0 0 0 0
     24     177  0.002078  0.014281   0.02528    353.36    353.36    353.36 1.00000    0.000 1    0.00    0.00     81.99     19.40    -81.85    -21.04 0 0 0 0
     24     200  0.000372  0.017500   0.00000    400.00    400.00    400.00 1.00000    0.000 1    0.00    0.00     72.89    -15.95    -72.87     16.89 0 0 0 0
     25      37  0.000600  0.023200   0.00000   1000.00   1000.00   1000.00 1.00000    0.000 1    0.00    0.00   -215.24     39.16    215.51    -28.62 0 0 0 0
     25     133  0.006133  0.048676   0.09258    395.58    395.58    395.58 1.00000    0.000 1    0.00    0.00     98.13     -8.05    -97.56      2.78 0 0 0 0
     25     168  0.018164  0.045274   0.07160    178.87    178.87    178.87 1.00000    0.000 1    0.00    0.00     38.42    -13.96    -38.14      7.11 0 0 0 0
     25     201  0.001261  0.046667   0.00000    150.00    150.00    150.00 1.00000    0.000 1    0.00    0.00     29.07    -28.83    -29.05     29.57 0 0 0 0
     26      42  0.007136  0.049490   0.43522    530.03    530.03    530.03 1.00000    0.000 1    0.00    0.00     29.62    -46.77    -29.52      0.94 0 0 0 0
     26      43  0.001333  0.009112   0.08245    530.03    530.03    530.03 1.00000    0.000 1    0.00    0.00     37.00    -21.38    -36.98     12.79 0 0 0 0
     26     202  0.010447  0.072454   0.63716    530.03    530.03    530.03 1.00000    0.000 1    0.00    0.00    -12.70    -38.91     12.72    -28.75 0 0 0 0
     27     160  0.022175  0.054676   0.08835    178.87    178.87    178.87 1.00000    0.000 1    0.00    0.00     13.96     13.25    -13.85    -22.19 0 0 0 0
     27     202  0.000519  0.023333   0.00000    300.00    300.00    300.00 1.00000    0.000 1    0.00    0.00    -72.28    -28.96     72.31     30.30 0 0 0 0
     28      77  0.066564  0.156472   0.03612    107.32    107.32    107.32 1.00000    0.000 1    0.00    0.00     16.22     -3.81    -16.05      0.48 0 0 0 0
     28      88  0.001156  0.018601   0.00608    418.29    418.29    418.29 1.00000    0.000 1    0.00    0.00     97.80      9.99    -97.70     -8.89 0 0 0 0
     28     203  0.005926  0.160000   0.00000     50.00     50.00     50.00 1.00000    0.000 1    0.00    0.00      0.00     -5.39     -0.00      5.43 0 0 0 0
     28     204  0.003529  0.120000   0.00000    100.00    100.00    100.00 1.00000    0.000 1    0.00    0.00     10.42     -9.63    -10.42      9.86 0 0 0 0
     29      38  0.000800  0.015600   0.00000   1200.00   1200.00   1200.00 1.00000    0.000 1    0.00    0.00   -330.59     28.20    331.44    -11.70 0 0 0 0
     29      84  0.009549  0.091679   0.02681    283.00    283.00    283.00 1.00000    0.000 1    0.00    0.00     66.74     -5.85    -66.33      7.00 0 0 0 0
     29     205  0.000209  0.010667   0.00000    750.00    750.00    750.00 1.00000    0.000 1    0.00    0.00    204.10    -38.09   -204.01     42.50 0 0 0 0
     39      43  0.005771  0.040026   0.35199    530.03    530.03    530.03 1.00000    0.000 1    0.00    0.00     95.87     -5.23    -95.37    -29.00 0 0 0 0
     40      43  0.003602  0.023140   0.23770    530.03    530.03    530.03 1.00000    0.000 1    0.00    0.00    -56.96    -18.44     57.07     -5.97 0 0 0 0
    202      41  0.002711  0.018804   0.16536    530.03    530.03    530.03 1.00000    0.000 1    0.00    0.00     75.42      2.72    -75.27    -19.30 0 0 0 0
     42     167  0.006872  0.049342   0.40438    530.03    530.03    530.03 1.00000    0.000 1    0.00    0.00    -54.41    -24.69     54.60    -17.78 0 0 0 0
     44      55  0.007424  0.027027   0.04470    229.46    229.46    229.46 1.00000    0.000 1    0.00    0.00     57.60    -15.09    -57.35     11.36 0 0 0 0
     44     206  0.000372  0.017500   0.00000    400.00    400.00    400.00 1.00000    0.000 1    0.00    0.00   -107.44      1.32    107.48      0.63 0 0 0 0
     45      52  0.000887  0.008362   0.07659    652.53    652.53    652.53 1.00000    0.000 1    0.00    0.00   -175.81     11.03    176.08    -16.49 0 0 0 0
    206      45  0.000420  0.002856   0.02611    530.03    530.03    530.03 1.00000    0.000 1    0.00    0.00     79.29    -11.05    -79.26      8.52 0 0 0 0
     45     212  0.001035  0.009761   0.08940    652.53    652.53    652.53 1.00000    0.000 1    0.00    0.00    179.33    -38.76   -179.00     32.58 0 0 0 0
     46      47  0.016826  0.106284   0.02894    212.01    212.01    212.01 1.00000    0.000 1    0.00    0.00     50.01     -2.74    -49.60      2.41 0 0 0 0
     46     207  0.000370  0.017778   0.00000    450.00    450.00    450.00 1.00000    0.000 1    0.00    0.00   -117.66    -16.21    117.71     18.67 0 0 0 0
     47      63  0.038101  0.089565   0.02068    107.32    107.32    107.32 1.00000    0.000 1    0.00    0.00    -10.16    -19.52     10.33     17.79 0 0 0 0
     48     150  0.003523  0.024436   0.21489    530.03    530.03    530.03 1.00000    0.000 1    0.00    0.00     71.69     -2.69    -71.51    -18.37 0 0 0 0
    182      48  0.003417  0.023699   0.20841    530.03    530.03    530.03 1.00000    0.000 1    0.00    0.00    145.97      2.79   -145.28    -19.82 0 0 0 0
     49      65  0.001800  0.037712   0.02118    474.70    474.70    474.70 1.00000    0.000 1    0.00    0.00    100.20      0.98   -100.03      0.46 0 0 0 0
     49     208  0.001000  0.040000   0.00000    200.00    200.00    200.00 1.00000    0.000 1    0.00    0.00     46.35     -3.19    -46.33      4.02 0 0 0 0
     49     209  0.001500  0.060000   0.00000    200.00    200.00    200.00 1.00000    0.000 1    0.00    0.00     39.55     -4.41    -39.52      5.32 0 0 0 0
     50      65  0.005258  0.037515   0.01148    237.35    237.35    237.35 1.00000    0.000 1    0.00    0.00    -53.62     14.64     53.78    -14.72 0 0 0 0
     50     210  0.003529  0.120000   0.00000    100.00    100.00    100.00 1.00000    0.000 1    0.00    0.00    -17.71     -2.31     17.72      2.68 0 0 0 0
     51      68  0.004060  0.037344   0.01192    283.00    283.00    283.00 1.00000    0.000 1    0.00    0.00    -45.00      5.96     45.09     -6.45 0 0 0 0
     51      72  0.000709  0.007194   0.00234    304.04    304.04    304.04 1.00000    0.000 1    0.00    0.00    -13.05    -25.44     13.06     25.26 0 0 0 0
    183      52  0.002047  0.021637   0.20301    707.51    707.51    707.51 1.00000    0.000 1    0.00    0.00   -183.35     29.08    184.03    -43.02 0 0 0 0
    206      52  0.000643  0.006662   0.06506    707.51    707.51    707.51 1.00000    0.000 1    0.00    0.00   -186.77     10.43    186.98    -14.95 0 0 0 0
     53      57  0.006894  0.059124   0.01683    261.01    261.01    261.01 1.00000    0.000 1    0.00    0.00     47.70     -3.00    -47.54      2.59 0 0 0 0
     53      73  0.003976  0.033438   0.00991    261.01    261.01    261.01 1.00000    0.000 1    0.00    0.00      6.46    -16.09     -6.44     15.16 0 0 0 0
     53     211  0.000369  0.018462   0.00000    650.00    650.00    650.00 1.00000    0.000 1    0.00    0.00   -171.30    -10.00    171.40     15.29 0 0 0 0
     55      61  0.034539  0.120369   0.21762    229.46    229.46    229.46 1.00000    0.000 1    0.00    0.00     59.72    -26.08    -58.46      7.89 0 0 0 0
    208      55  0.006202  0.018912   0.03169    206.75    206.75    206.75 1.00000    0.000 1    0.00    0.00     42.65     -2.93    -42.54     -0.03 0 0 0 0
     55     212  0.001261  0.046667   0.00000    150.00    150.00    150.00 1.00000    0.000 1    0.00    0.00    -32.74     -4.46     32.75      4.95 0 0 0 0
    185      56  0.000908  0.009601   0.09009    707.51    707.51    707.51 1.00000    0.000 1    0.00    0.00    132.16     -8.88   -132.01      1.12 0 0 0 0
    191      56  0.000301  0.008151   0.12418   1246.50   1246.50   1246.50 1.00000    0.000 1    0.00    0.00   -325.05     33.74    325.36    -38.31 0 0 0 0
     57      60  0.018675  0.042258   0.01054    107.32    107.32    107.32 1.00000    0.000 1    0.00    0.00      7.09    -15.49     -7.04     14.51 0 0 0 0
     58      62  0.002141  0.014851   0.13060    530.03    530.03    530.03 1.00000    0.000 1    0.00    0.00     73.69      8.99    -73.57    -21.53 0 0 0 0
     58      66  0.001447  0.010038   0.08828    530.03    530.03    530.03 1.00000    0.000 1    0.00    0.00    -16.36     -9.77     16.36      0.73 0 0 0 0
    185      58  0.002185  0.015152   0.13324    530.03    530.03    530.03 1.00000    0.000 1    0.00    0.00    153.00     20.98   -152.50    -31.24 0 0 0 0
    191      59  0.000938  0.006385   0.05837    530.03    530.03    530.03 1.00000    0.000 1    0.00    0.00    133.97     11.03   -133.80    -16.00 0 0 0 0
     59     213  0.000907  0.006172   0.05642    530.03    530.03    530.03 1.00000    0.000 1    0.00    0.00     77.61     -4.12    -77.56     -1.39 0 0 0 0
     60      63  0.017610  0.040671   0.00973    107.32    107.32    107.32 1.00000    0.000 1    0.00    0.00     -0.98    -19.17      1.04     18.29 0 0 0 0
     60      64  0.005655  0.040347   0.01235    237.35    237.35    237.35 1.00000    0.000 1    0.00    0.00    -56.87    -15.41     57.06     15.47 0 0 0 0
     61     143  0.002057  0.016137   0.03143    395.58    395.58    395.58 1.00000    0.000 1    0.00    0.00     66.39    -18.09    -66.30     15.55 0 0 0 0
    192      61  0.004667  0.025655   0.04713    312.32    312.32    312.32 1.00000    0.000 1    0.00    0.00    -75.10     27.13     75.39    -30.44 0 0 0 0
     61     213  0.000519  0.023333   0.00000    300.00    300.00    300.00 1.00000    0.000 1    0.00    0.00    -77.53     -0.04     77.56      1.39 0 0 0 0
     63      75  0.005417  0.046454   0.01323    261.01    261.01    261.01 1.00000    0.000 1    0.00    0.00    -66.10     -2.94     66.33      3.48 0 0 0 0
     64     214  0.000336  0.017143   0.00000    700.00    700.00    700.00 1.00000    0.000 1    0.00    0.00   -180.98     26.24    181.09    -20.80 0 0 0 0
     66      71  0.001271  0.008811   0.07749    530.03    530.03    530.03 1.00000    0.000 1    0.00    0.00    -70.57    -16.42     70.63      8.87 0 0 0 0
     67      68  0.002882  0.026509   0.00846    283.00    283.00    283.00 1.00000    0.000 1    0.00    0.00    -66.47     12.15     66.60    -11.85 0 0 0 0
     68     215  0.000336  0.017143   0.00000    700.00    700.00    700.00 1.00000    0.000 1    0.00    0.00   -192.93     -3.86    193.05     10.03 0 0 0 0
    189      69  0.001131  0.007735   0.06999    530.03    530.03    530.03 1.00000    0.000 1    0.00    0.00    -30.67     21.47     30.69    -28.64 0 0 0 0
     69     247  0.002929  0.020317   0.17866    530.03    530.03    530.03 1.00000    0.000 1    0.00    0.00    124.56      3.14   -124.12    -18.57 0 0 0 0
     71      76  0.001422  0.009863   0.08674    530.03    530.03    530.03 1.00000    0.000 1    0.00    0.00   -118.15    -25.32    118.35     17.70 0 0 0 0
     72      73  0.000275  0.004586   0.00284    424.03    424.03    424.03 1.00000    0.000 1    0.00    0.00     45.27     32.21    -45.26    -32.37 0 0 0 0
    182      74  0.000498  0.003455   0.03038    530.03    530.03    530.03 1.00000    0.000 1    0.00    0.00     12.90     31.39    -12.89    -34.55 0 0 0 0
    210      74  0.001292  0.011415   0.10343    623.25    623.25    623.25 1.00000    0.000 1    0.00    0.00    153.70    -42.08   -153.39     33.92 0 0 0 0
     74     216  0.000640  0.004357   0.03984    530.03    530.03    530.03 1.00000    0.000 1    0.00    0.00    109.50    -14.57   -109.43     10.88 0 0 0 0
     75     216  0.000638  0.030000   0.00000    400.00    400.00    400.00 1.00000    0.000 1    0.00    0.00   -109.36     14.32    109.43    -10.88 0 0 0 0
    190      76  0.001435  0.009955   0.08755    530.03    530.03    530.03 1.00000    0.000 1    0.00    0.00     81.66     19.12    -81.56    -27.57 0 0 0 0
     76     238  0.003386  0.047034   0.46520    868.25    868.25    868.25 1.00000    0.000 1    0.00    0.00    212.27    -44.54   -210.79     16.36 0 0 0 0
     77      84  0.006198  0.069744   0.01841    304.04    304.04    304.04 1.00000    0.000 1    0.00    0.00    -74.86     -2.99     75.20      4.90 0 0 0 0
     77      89  0.016077  0.099621   0.02821    212.01    212.01    212.01 1.00000    0.000 1    0.00    0.00     58.13     18.29    -57.54    -17.45 0 0 0 0
     77     217  0.005926  0.160000   0.00000     50.00     50.00     50.00 1.00000    0.000 1    0.00    0.00    -12.91     -9.08     12.93      9.47 0 0 0 0
     77     218  0.003529  0.120000   0.00000    100.00    100.00    100.00 1.00000    0.000 1    0.00    0.00    -16.16    -13.12     16.18     13.63 0 0 0 0
     78      79  0.014099  0.097781   0.85988    511.35    511.35    511.35 1.00000    0.000 1    0.00    0.00     70.64    -83.40    -69.81     -6.24 0 0 0 0
     78     167  0.005724  0.038942   0.35603    530.03    530.03    530.03 1.00000    0.000 1    0.00    0.00    -38.32    -24.84     38.40    -13.24 0 0 0 0
     79      87  0.008106  0.052075   0.53493    530.03    530.03    530.03 1.00000    0.000 1    0.00    0.00    -32.89    -20.86     32.97    -39.38 0 0 0 0
     80      81  0.005975  0.042908   0.35164    530.03    530.03    530.03 1.00000    0.000 1    0.00    0.00      5.33    -23.19     -5.33    -13.44 0 0 0 0
     80      87  0.003558  0.071801   1.18166    696.37    696.37    696.37 1.00000    0.000 1    0.00    0.00    131.02   -125.83   -130.29     12.06 0 0 0 0
     81      82  0.007764  0.053845   0.47351    530.03    530.03    530.03 1.00000    0.000 1    0.00    0.00    -84.17     -7.32     84.72    -38.22 0 0 0 0
     82      83  0.007662  0.053138   0.46730    530.03    530.03    530.03 1.00000    0.000 1    0.00    0.00    -25.42    -36.56     25.48    -12.05 0 0 0 0
     83     219  0.005009  0.034736   0.30546    530.03    530.03    530.03 1.00000    0.000 1    0.00    0.00    -88.47     -7.89     88.84    -21.88 0 0 0 0
     84     219  0.000224  0.011429   0.00000   1050.00   1050.00   1050.00 1.00000    0.000 1    0.00    0.00    281.48    -93.34   -281.29    103.00 0 0 0 0
     85     154  0.017306  0.084819   0.15179    289.22    289.22    289.22 1.00000    0.000 1    0.00    0.00     52.87    -13.59    -52.40      0.03 0 0 0 0
    217      85  0.004299  0.043533   0.08806    471.67    471.67    471.67 1.00000    0.000 1    0.00    0.00    106.81     -2.08   -106.34     -2.48 0 0 0 0
     86      88  0.044131  0.145633   0.03817    137.68    137.68    137.68 1.00000    0.000 1    0.00    0.00    -24.45      6.31     24.74     -9.32 0 0 0 0
     86     169  0.025279  0.129580   0.03558    187.39    187.39    187.39 1.00000    0.000 1    0.00    0.00      0.50     -4.62     -0.50      0.94 0 0 0 0
     86     220  0.000744  0.032000   0.00000    250.00    250.00    250.00 1.00000    0.000 1    0.00    0.00    -62.62    -25.46     62.65     26.87 0 0 0 0
...